Version 4
SHEET 1 880 680
WIRE 528 32 496 32
WIRE -16 48 -48 48
WIRE 96 80 -48 80
WIRE 416 80 96 80
WIRE 496 96 496 32
WIRE -240 112 -416 112
WIRE -192 112 -240 112
WIRE 96 112 -48 112
WIRE 336 112 96 112
WIRE -240 144 -304 144
WIRE -192 144 -240 144
WIRE 96 144 -48 144
WIRE 256 144 96 144
WIRE -416 160 -416 112
WIRE -304 160 -304 144
WIRE 96 176 -48 176
WIRE 176 176 96 176
WIRE 176 192 176 176
WIRE 256 192 256 144
WIRE 336 192 336 112
WIRE 416 192 416 80
WIRE 0 208 -48 208
WIRE -416 304 -416 240
WIRE -304 304 -304 240
WIRE 0 304 0 208
WIRE 176 304 176 272
WIRE 256 304 256 272
WIRE 336 304 336 272
WIRE 416 304 416 272
WIRE 496 304 496 176
FLAG 0 304 0
FLAG -16 48 VDD
IOPIN -16 48 BiDir
FLAG 176 304 0
FLAG 256 304 0
FLAG 336 304 0
FLAG 416 304 0
FLAG 496 304 0
FLAG 528 32 VDD
IOPIN 528 32 BiDir
FLAG -416 304 0
FLAG -304 304 0
FLAG 96 80 OUT0
FLAG 96 112 OUT1
FLAG 96 144 OUT2
FLAG 96 176 OUT3
FLAG -240 112 IN0
FLAG -240 144 IN1
SYMBOL res 160 176 R0
SYMATTR InstName R1
SYMATTR Value 100K
SYMBOL res 240 176 R0
SYMATTR InstName R2
SYMATTR Value 100K
SYMBOL res 320 176 R0
SYMATTR InstName R3
SYMATTR Value 100K
SYMBOL res 400 176 R0
SYMATTR InstName R4
SYMATTR Value 100K
SYMBOL voltage 496 80 R0
WINDOW 123 0 0 Left 2
WINDOW 39 0 0 Left 2
SYMATTR InstName V1
SYMATTR Value 3.3
SYMBOL voltage -416 144 R0
WINDOW 3 -6 214 Left 2
SYMATTR Value PWL file=2TO4_IN0.txt
SYMATTR InstName V2
SYMBOL voltage -304 144 R0
WINDOW 3 -118 239 Left 2
SYMATTR Value PWL file=2TO4_IN1.txt
SYMATTR InstName V3
SYMBOL 2BTO4D -128 128 R0
SYMATTR InstName X1
TEXT -160 312 Left 2 !.tran 1
