Version 4
SHEET 1 880 988
WIRE -16 -688 -464 -688
WIRE -208 -624 -304 -624
WIRE -128 -624 -208 -624
WIRE -464 -592 -464 -688
WIRE -464 -592 -512 -592
WIRE -416 -592 -464 -592
WIRE -160 -592 -304 -592
WIRE 16 -592 -160 -592
WIRE -256 -560 -304 -560
WIRE -128 -560 -256 -560
WIRE 48 -512 -464 -512
WIRE -208 -448 -208 -624
WIRE -208 -448 -304 -448
WIRE -464 -416 -464 -512
WIRE -464 -416 -512 -416
WIRE -416 -416 -464 -416
WIRE -160 -416 -304 -416
WIRE 80 -416 -160 -416
WIRE -256 -384 -256 -560
WIRE -256 -384 -304 -384
WIRE 16 -384 16 -592
WIRE 192 -384 16 -384
WIRE 400 -384 320 -384
WIRE 448 -384 400 -384
WIRE 448 -352 320 -352
WIRE 80 -320 80 -416
WIRE 192 -320 80 -320
WIRE 368 -320 320 -320
WIRE 448 -320 368 -320
WIRE -16 -224 -16 -688
WIRE 192 -224 -16 -224
WIRE 400 -224 400 -384
WIRE 400 -224 320 -224
WIRE 448 -192 320 -192
WIRE 80 -160 80 -320
WIRE 192 -160 80 -160
WIRE 368 -160 368 -320
WIRE 368 -160 320 -160
WIRE 48 -64 48 -512
WIRE 192 -64 48 -64
WIRE 400 -64 400 -224
WIRE 400 -64 320 -64
WIRE 448 -32 320 -32
WIRE 16 0 16 -384
WIRE 192 0 16 0
WIRE 368 0 368 -160
WIRE 368 0 320 0
WIRE -16 96 -16 -224
WIRE 192 96 -16 96
WIRE 400 96 400 -64
WIRE 400 96 320 96
WIRE 448 128 320 128
WIRE 48 160 48 -64
WIRE 192 160 48 160
WIRE 368 160 368 0
WIRE 368 160 320 160
WIRE -16 192 -16 96
WIRE 16 192 16 0
WIRE 48 192 48 160
WIRE 80 192 80 -160
FLAG -512 -592 IN0
IOPIN -512 -592 In
FLAG -512 -416 IN1
IOPIN -512 -416 In
FLAG -160 -592 !IN0
FLAG -160 -416 !IN1
FLAG -128 -560 VSS
IOPIN -128 -560 BiDir
FLAG -128 -624 VDD
IOPIN -128 -624 BiDir
FLAG 448 -384 VDD
IOPIN 448 -384 BiDir
FLAG 448 -320 VSS
IOPIN 448 -320 BiDir
FLAG 448 -352 OUT0
IOPIN 448 -352 Out
FLAG 448 -192 OUT1
IOPIN 448 -192 Out
FLAG 448 -32 OUT2
IOPIN 448 -32 Out
FLAG 448 128 OUT3
IOPIN 448 128 Out
SYMBOL 1INV -368 -592 R0
SYMATTR InstName X1
SYMBOL 1INV -368 -416 R0
SYMATTR InstName X2
SYMBOL 2AND 256 -352 R0
SYMATTR InstName X3
SYMBOL 2AND 256 -192 R0
SYMATTR InstName X4
SYMBOL 2AND 256 -32 R0
SYMATTR InstName X5
SYMBOL 2AND 256 128 R0
SYMATTR InstName X6
