Version 4
SHEET 1 880 680
WIRE 288 64 112 64
WIRE 112 128 112 64
WIRE 112 128 96 128
WIRE 288 128 288 64
WIRE 288 128 272 128
WIRE 304 128 288 128
WIRE -32 144 -64 144
WIRE 160 160 96 160
WIRE 304 160 272 160
WIRE -32 176 -64 176
WIRE 112 192 96 192
WIRE 288 192 272 192
WIRE 304 192 288 192
WIRE 112 256 112 192
WIRE 288 256 288 192
WIRE 288 256 112 256
FLAG 304 128 VDD
IOPIN 304 128 BiDir
FLAG 304 192 VSS
IOPIN 304 192 BiDir
FLAG 304 160 OUT
IOPIN 304 160 Out
FLAG -64 144 IN0
IOPIN -64 144 In
FLAG -64 176 IN1
IOPIN -64 176 In
SYMBOL 1INV 208 160 R0
SYMATTR InstName X2
SYMBOL 2NOR 32 160 R0
SYMATTR InstName X1
