Version 4
SHEET 1 1108 680
WIRE 176 -224 -96 -224
WIRE 176 -160 176 -224
WIRE 96 -112 48 -112
WIRE 336 -112 192 -112
WIRE 48 32 48 -112
WIRE 48 32 -176 32
WIRE 144 32 144 -112
WIRE 336 32 144 32
WIRE 48 176 48 32
WIRE 96 176 48 176
WIRE 144 176 144 32
WIRE 336 176 192 176
WIRE 64 336 48 336
WIRE -96 368 -96 -224
WIRE -96 368 -176 368
WIRE -64 368 -96 368
WIRE 176 368 176 224
WIRE 176 368 48 368
WIRE 64 400 48 400
FLAG 336 32 VSS
IOPIN 336 32 BiDir
FLAG 64 336 VDD
IOPIN 64 336 BiDir
FLAG 64 400 VSS
IOPIN 64 400 BiDir
FLAG -176 368 B
IOPIN -176 368 In
FLAG -176 32 IN
IOPIN -176 32 In
FLAG 336 -112 B_OUT
IOPIN 336 -112 Out
FLAG 336 176 !B_OUT
IOPIN 336 176 Out
SYMBOL nmos4 96 224 R270
SYMATTR InstName M1
SYMATTR Value2 l=110nM w=300nM
SYMBOL nmos4 96 -160 M90
SYMATTR InstName M2
SYMATTR Value2 l=110n w=180n
SYMBOL 1INV -16 368 R0
SYMATTR InstName X1
