Version 4
SHEET 1 1108 680
WIRE 960 0 816 0
WIRE 592 32 544 32
WIRE 960 32 816 32
WIRE 592 64 304 64
WIRE 960 64 816 64
WIRE 544 112 544 32
WIRE 544 112 512 112
WIRE 960 176 816 176
WIRE 544 208 544 112
WIRE 592 208 544 208
WIRE 960 208 816 208
WIRE 592 240 560 240
WIRE 960 240 816 240
WIRE 448 304 432 304
WIRE 304 336 304 64
WIRE 304 336 288 336
WIRE 320 336 304 336
WIRE 560 336 560 240
WIRE 560 336 432 336
WIRE 448 368 432 368
FLAG 960 32 B_OUT
IOPIN 960 32 Out
FLAG 960 208 !B_OUT
IOPIN 960 208 Out
FLAG 960 240 VSS
IOPIN 960 240 BiDir
FLAG 960 64 VSS
IOPIN 960 64 BiDir
FLAG 960 176 VDD
IOPIN 960 176 BiDir
FLAG 960 0 VDD
IOPIN 960 0 BiDir
FLAG 512 112 IN
IOPIN 512 112 In
FLAG 448 304 VDD
IOPIN 448 304 BiDir
FLAG 448 368 VSS
IOPIN 448 368 BiDir
FLAG 288 336 B
IOPIN 288 336 In
SYMBOL ANALOG_SWITCH 704 32 R0
WINDOW 39 -5 86 Bottom 2
SYMATTR InstName X2
SYMATTR SpiceLine L=110nM W=180nM
SYMBOL ANALOG_SWITCH 704 208 R0
WINDOW 39 -4 84 Bottom 2
SYMATTR InstName X3
SYMATTR SpiceLine L=110nM W=180nM
SYMBOL 1INV 368 336 R0
SYMATTR InstName X4
