Version 4
SHEET 1 1108 680
WIRE 656 0 352 0
WIRE 688 0 656 0
WIRE 960 0 816 0
WIRE 960 32 816 32
WIRE 688 64 384 64
WIRE 960 64 816 64
WIRE 656 176 656 0
WIRE 688 176 656 176
WIRE 960 176 816 176
WIRE 544 208 528 208
WIRE 960 208 816 208
WIRE 384 240 384 64
WIRE 384 240 352 240
WIRE 416 240 384 240
WIRE 688 240 528 240
WIRE 960 240 816 240
WIRE 544 272 528 272
FLAG 960 32 B_OUT
IOPIN 960 32 Out
FLAG 960 208 !B_OUT
IOPIN 960 208 Out
FLAG 960 240 VSS
IOPIN 960 240 BiDir
FLAG 960 64 VSS
IOPIN 960 64 BiDir
FLAG 960 176 VDD
IOPIN 960 176 BiDir
FLAG 960 0 VDD
IOPIN 960 0 BiDir
FLAG 352 0 IN
IOPIN 352 0 In
FLAG 544 208 VDD
IOPIN 544 208 BiDir
FLAG 544 272 VSS
IOPIN 544 272 BiDir
FLAG 352 240 B
IOPIN 352 240 In
SYMBOL 1INV 464 240 R0
SYMATTR InstName X4
SYMBOL 2AND 752 32 R0
SYMATTR InstName X1
SYMBOL 2AND 752 208 R0
SYMATTR InstName X2
