Version 4
SHEET 1 880 680
WIRE -96 -224 -176 -224
WIRE 16 -224 -96 -224
WIRE 96 -224 16 -224
WIRE 208 -224 96 -224
WIRE 288 -224 208 -224
WIRE 400 -224 288 -224
WIRE 480 -224 400 -224
WIRE 656 -224 480 -224
WIRE 736 -224 656 -224
WIRE -176 -192 -176 -224
WIRE 16 -192 16 -224
WIRE 208 -192 208 -224
WIRE 400 -192 400 -224
WIRE -224 -176 -368 -176
WIRE -32 -176 -64 -176
WIRE 160 -176 112 -176
WIRE 352 -176 320 -176
WIRE -96 -144 -96 -224
WIRE -96 -144 -176 -144
WIRE 96 -144 96 -224
WIRE 96 -144 16 -144
WIRE 288 -144 288 -224
WIRE 288 -144 208 -144
WIRE 480 -144 480 -224
WIRE 480 -144 400 -144
WIRE -176 -80 -176 -96
WIRE 16 -80 16 -96
WIRE 16 -80 -176 -80
WIRE 208 -80 208 -96
WIRE 208 -80 16 -80
WIRE 400 -80 400 -96
WIRE 400 -80 208 -80
WIRE -64 -64 -64 -176
WIRE -64 -64 -352 -64
WIRE 112 -48 112 -176
WIRE 112 -48 -336 -48
WIRE 320 -32 320 -176
WIRE 320 -32 -320 -32
WIRE -176 -16 -176 -80
WIRE -96 32 -176 32
WIRE 656 32 656 -224
WIRE 656 32 624 32
WIRE -368 64 -368 -176
WIRE -368 64 -384 64
WIRE -224 64 -368 64
WIRE 400 64 400 -80
WIRE 512 64 400 64
WIRE 736 64 624 64
WIRE -176 96 -176 80
WIRE 656 96 624 96
WIRE -96 144 -96 32
WIRE -96 144 -176 144
WIRE -352 176 -352 -64
WIRE -352 176 -384 176
WIRE -224 176 -352 176
WIRE -176 208 -176 192
WIRE -96 256 -96 144
WIRE -96 256 -176 256
WIRE -336 288 -336 -48
WIRE -336 288 -384 288
WIRE -224 288 -336 288
WIRE -176 320 -176 304
WIRE -96 368 -96 256
WIRE -96 368 -176 368
WIRE -320 400 -320 -32
WIRE -320 400 -384 400
WIRE -224 400 -320 400
WIRE -176 448 -176 416
WIRE -96 448 -96 368
WIRE -96 448 -176 448
WIRE 656 448 656 96
WIRE 656 448 -96 448
WIRE 736 448 656 448
FLAG 736 64 OUT
IOPIN 736 64 Out
FLAG 736 -224 VDD
IOPIN 736 -224 BiDir
FLAG 736 448 VSS
IOPIN 736 448 BiDir
FLAG -384 64 IN0
IOPIN -384 64 In
FLAG -384 176 IN1
IOPIN -384 176 In
FLAG -384 288 IN2
IOPIN -384 288 In
FLAG -384 400 IN3
IOPIN -384 400 In
SYMBOL nmos4 -224 96 R0
SYMATTR InstName M6
SYMATTR Value2 l=110n w=180n
SYMBOL nmos4 -224 -16 R0
SYMATTR InstName M5
SYMATTR Value2 l=110n w=180n
SYMBOL pmos4 -224 -96 M180
SYMATTR InstName M1
SYMATTR Value2 l=110n w=180n
SYMBOL pmos4 352 -96 M180
SYMATTR InstName M4
SYMATTR Value2 l=110n w=180n
SYMBOL 1INV 560 64 R0
SYMATTR InstName X1
SYMBOL nmos4 -224 208 R0
SYMATTR InstName M7
SYMATTR Value2 l=110n w=180n
SYMBOL nmos4 -224 320 R0
SYMATTR InstName M8
SYMATTR Value2 l=110n w=180n
SYMBOL pmos4 -32 -96 M180
SYMATTR InstName M2
SYMATTR Value2 l=110n w=180n
SYMBOL pmos4 160 -96 M180
SYMATTR InstName M3
SYMATTR Value2 l=110n w=180n
