Version 4
SHEET 1 2296 1184
WIRE 64 -128 -400 -128
WIRE 256 -128 208 -128
WIRE 64 -96 -304 -96
WIRE 288 -96 208 -96
WIRE 1856 -96 288 -96
WIRE 64 -64 -208 -64
WIRE 288 -64 208 -64
WIRE 1760 -64 288 -64
WIRE 64 -32 -112 -32
WIRE 288 -32 208 -32
WIRE 1664 -32 288 -32
WIRE 64 0 48 0
WIRE 288 0 208 0
WIRE 1568 0 288 0
WIRE 288 32 208 32
WIRE 1472 32 288 32
WIRE 288 64 208 64
WIRE 1376 64 288 64
WIRE 288 96 208 96
WIRE 1280 96 288 96
WIRE 288 128 208 128
WIRE 1184 128 288 128
WIRE 288 160 208 160
WIRE 1088 160 288 160
WIRE 288 192 208 192
WIRE 992 192 288 192
WIRE 288 224 208 224
WIRE 896 224 288 224
WIRE 288 256 208 256
WIRE 800 256 288 256
WIRE 288 288 208 288
WIRE 704 288 288 288
WIRE 288 320 208 320
WIRE 608 320 288 320
WIRE -400 352 -400 -128
WIRE -304 352 -304 -96
WIRE -208 352 -208 -64
WIRE -112 352 -112 -32
WIRE 288 352 208 352
WIRE 512 352 288 352
WIRE 288 384 208 384
WIRE 352 384 288 384
WIRE 416 384 352 384
WIRE 256 416 208 416
WIRE 416 416 416 384
WIRE 512 416 512 352
WIRE 608 416 608 320
WIRE 704 416 704 288
WIRE 800 416 800 256
WIRE 896 416 896 224
WIRE 992 416 992 192
WIRE 1088 416 1088 160
WIRE 1184 416 1184 128
WIRE 1280 416 1280 96
WIRE 1376 416 1376 64
WIRE 1472 416 1472 32
WIRE 1568 416 1568 0
WIRE 1664 416 1664 -32
WIRE 1760 416 1760 -64
WIRE 1856 416 1856 -96
WIRE -400 448 -400 432
WIRE -304 448 -304 432
WIRE -208 448 -208 432
WIRE -112 448 -112 432
WIRE 256 448 256 416
WIRE 416 528 416 496
WIRE 512 528 512 496
WIRE 608 528 608 496
WIRE 704 528 704 496
WIRE 800 528 800 496
WIRE 896 528 896 496
WIRE 992 528 992 496
WIRE 1088 528 1088 496
WIRE 1184 528 1184 496
WIRE 1280 528 1280 496
WIRE 1376 528 1376 496
WIRE 1472 528 1472 496
WIRE 1568 528 1568 496
WIRE 1664 528 1664 496
WIRE 1760 528 1760 496
WIRE 1856 528 1856 496
WIRE 976 592 944 592
WIRE 640 640 560 640
WIRE 944 656 944 592
WIRE 352 672 352 384
WIRE 448 672 352 672
WIRE 640 672 560 672
WIRE 608 704 560 704
WIRE 608 736 608 704
WIRE 944 864 944 736
FLAG 256 448 0
FLAG 256 -128 VDD
IOPIN 256 -128 BiDir
FLAG 944 864 0
FLAG 976 592 VDD
IOPIN 976 592 BiDir
FLAG 512 528 0
FLAG 608 528 0
FLAG 704 528 0
FLAG 800 528 0
FLAG 896 528 0
FLAG 992 528 0
FLAG 1088 528 0
FLAG 1184 528 0
FLAG 1280 528 0
FLAG 1376 528 0
FLAG 1472 528 0
FLAG 1568 528 0
FLAG 1664 528 0
FLAG 1760 528 0
FLAG 1856 528 0
FLAG 288 384 OUT0
FLAG 288 352 OUT1
FLAG 288 320 OUT2
FLAG 288 288 OUT3
FLAG 288 256 OUT4
FLAG 288 224 OUT5
FLAG 288 192 OUT6
FLAG 288 160 OUT7
FLAG 288 128 OUT8
FLAG 608 736 0
FLAG 640 640 VDD
IOPIN 640 640 BiDir
FLAG 640 672 OUT00
IOPIN 640 672 Out
FLAG 416 528 0
FLAG 48 0 VDD
IOPIN 48 0 BiDir
FLAG -400 448 0
FLAG -304 448 0
FLAG -208 448 0
FLAG -112 448 0
FLAG 288 96 OUT9
FLAG 288 64 OUT10
FLAG 288 32 OUT11
FLAG 288 0 OUT12
FLAG 288 -32 OUT13
FLAG 288 -64 OUT14
FLAG 288 -96 OUT15
SYMBOL voltage 944 640 R0
WINDOW 123 0 0 Left 2
WINDOW 39 54 61 Left 2
WINDOW 0 51 20 Left 2
WINDOW 3 50 42 Left 2
SYMATTR SpiceLine Rser=0.1
SYMATTR InstName V3
SYMATTR Value 3.3
SYMBOL res 496 400 R0
SYMATTR InstName R2
SYMATTR Value 3000K
SYMBOL res 592 400 R0
SYMATTR InstName R3
SYMATTR Value 3000K
SYMBOL res 688 400 R0
SYMATTR InstName R4
SYMATTR Value 3000K
SYMBOL res 784 400 R0
SYMATTR InstName R5
SYMATTR Value 100K
SYMBOL res 880 400 R0
SYMATTR InstName R6
SYMATTR Value 3000K
SYMBOL res 976 400 R0
SYMATTR InstName R7
SYMATTR Value 3000K
SYMBOL res 1072 400 R0
SYMATTR InstName R8
SYMATTR Value 3000K
SYMBOL res 1168 400 R0
SYMATTR InstName R9
SYMATTR Value 3000K
SYMBOL res 1264 400 R0
SYMATTR InstName R10
SYMATTR Value 3000K
SYMBOL res 1360 400 R0
SYMATTR InstName R11
SYMATTR Value 3000K
SYMBOL res 1456 400 R0
SYMATTR InstName R12
SYMATTR Value 3000K
SYMBOL res 1552 400 R0
SYMATTR InstName R13
SYMATTR Value 3000K
SYMBOL res 1648 400 R0
SYMATTR InstName R14
SYMATTR Value 3000K
SYMBOL res 1744 400 R0
SYMATTR InstName R15
SYMATTR Value 3000K
SYMBOL res 1840 400 R0
SYMATTR InstName R16
SYMATTR Value 3000K
SYMBOL 1INV 496 672 R0
SYMATTR InstName X2
SYMBOL 4BTO16T_MUX 128 144 R0
SYMATTR InstName X3
SYMBOL voltage -400 336 R0
WINDOW 3 -15 266 Left 2
WINDOW 123 0 0 Left 2
WINDOW 39 0 0 Left 2
SYMATTR Value PWL file=D:\ASIC\DATA\COUNTER_D0.txt
SYMATTR InstName V1
SYMBOL voltage -304 336 R0
WINDOW 3 -113 287 Left 2
WINDOW 123 0 0 Left 2
WINDOW 39 0 0 Left 2
SYMATTR Value PWL file=D:\ASIC\DATA\COUNTER_D1.txt
SYMATTR InstName V2
SYMBOL voltage -208 336 R0
WINDOW 3 -208 309 Left 2
WINDOW 123 0 0 Left 2
WINDOW 39 0 0 Left 2
SYMATTR Value PWL file=D:\ASIC\DATA\COUNTER_D2.txt
SYMATTR InstName V4
SYMBOL voltage -112 336 R0
WINDOW 3 -303 333 Left 2
WINDOW 123 0 0 Left 2
WINDOW 39 0 0 Left 2
SYMATTR Value PWL file=D:\ASIC\DATA\COUNTER_D3.txt
SYMATTR InstName V5
TEXT 72 496 Left 2 !.tran 20m
