Version 4
SHEET 1 2456 2760
WIRE 224 -528 160 -528
WIRE 256 -528 224 -528
WIRE 448 -528 448 -560
WIRE 752 -528 448 -528
WIRE 944 -528 880 -528
WIRE 1056 -528 944 -528
WIRE 0 -496 -144 -496
WIRE 48 -496 0 -496
WIRE 416 -496 416 -560
WIRE 416 -496 160 -496
WIRE 528 -496 528 -560
WIRE 752 -496 528 -496
WIRE 1056 -480 880 -480
WIRE 192 -464 160 -464
WIRE 256 -464 192 -464
WIRE 608 -464 608 -560
WIRE 752 -464 608 -464
WIRE 688 -432 688 -560
WIRE 752 -432 688 -432
WIRE 912 -432 880 -432
WIRE 1056 -432 912 -432
WIRE 0 -416 0 -496
WIRE 448 -416 448 -528
WIRE 448 -416 0 -416
WIRE 224 -336 224 -528
WIRE 224 -336 160 -336
WIRE 416 -320 416 -496
WIRE 752 -320 416 -320
WIRE 944 -320 944 -528
WIRE 944 -320 880 -320
WIRE 0 -304 -144 -304
WIRE 48 -304 0 -304
WIRE 496 -304 496 -560
WIRE 496 -304 160 -304
WIRE 528 -288 528 -496
WIRE 752 -288 528 -288
WIRE 192 -272 192 -464
WIRE 192 -272 160 -272
WIRE 1056 -272 880 -272
WIRE 608 -256 608 -464
WIRE 752 -256 608 -256
WIRE 0 -224 0 -304
WIRE 528 -224 528 -288
WIRE 528 -224 0 -224
WIRE 688 -224 688 -432
WIRE 752 -224 688 -224
WIRE 912 -224 912 -432
WIRE 912 -224 880 -224
WIRE 224 -144 224 -336
WIRE 224 -144 160 -144
WIRE 0 -112 -144 -112
WIRE 48 -112 0 -112
WIRE 576 -112 576 -560
WIRE 576 -112 160 -112
WIRE 944 -112 944 -320
WIRE 944 -112 880 -112
WIRE 192 -80 192 -272
WIRE 192 -80 160 -80
WIRE 1056 -64 880 -64
WIRE 0 -32 0 -112
WIRE 608 -32 608 -256
WIRE 608 -32 0 -32
WIRE 912 -16 912 -224
WIRE 912 -16 880 -16
WIRE 224 48 224 -144
WIRE 224 48 160 48
WIRE 0 80 -144 80
WIRE 48 80 0 80
WIRE 656 80 656 -560
WIRE 656 80 160 80
WIRE 944 96 944 -112
WIRE 944 96 880 96
WIRE 192 112 192 -80
WIRE 192 112 160 112
WIRE 1056 144 880 144
WIRE 0 160 0 80
WIRE 688 160 688 -224
WIRE 688 160 0 160
WIRE 912 192 912 -16
WIRE 912 192 880 192
WIRE 944 304 944 96
WIRE 944 304 880 304
WIRE 1056 352 880 352
WIRE 912 400 912 192
WIRE 912 400 880 400
WIRE 944 512 944 304
WIRE 944 512 880 512
WIRE 1056 560 880 560
WIRE 912 608 912 400
WIRE 912 608 880 608
WIRE 944 720 944 512
WIRE 944 720 880 720
WIRE 1056 768 880 768
WIRE 912 816 912 608
WIRE 912 816 880 816
WIRE 944 928 944 720
WIRE 944 928 880 928
WIRE 1056 976 880 976
WIRE 912 1024 912 816
WIRE 912 1024 880 1024
WIRE 944 1136 944 928
WIRE 944 1136 880 1136
WIRE 1056 1184 880 1184
WIRE 912 1232 912 1024
WIRE 912 1232 880 1232
WIRE 944 1344 944 1136
WIRE 944 1344 880 1344
WIRE 1056 1392 880 1392
WIRE 912 1440 912 1232
WIRE 912 1440 880 1440
WIRE 944 1552 944 1344
WIRE 944 1552 880 1552
WIRE 1056 1600 880 1600
WIRE 912 1648 912 1440
WIRE 912 1648 880 1648
WIRE 944 1760 944 1552
WIRE 944 1760 880 1760
WIRE 1056 1808 880 1808
WIRE 912 1856 912 1648
WIRE 912 1856 880 1856
WIRE 944 1968 944 1760
WIRE 944 1968 880 1968
WIRE 1056 2016 880 2016
WIRE 912 2064 912 1856
WIRE 912 2064 880 2064
WIRE 944 2176 944 1968
WIRE 944 2176 880 2176
WIRE 1056 2224 880 2224
WIRE 912 2272 912 2064
WIRE 912 2272 880 2272
WIRE 944 2384 944 2176
WIRE 944 2384 880 2384
WIRE 1056 2432 880 2432
WIRE 912 2480 912 2272
WIRE 912 2480 880 2480
WIRE 944 2592 944 2384
WIRE 944 2592 880 2592
WIRE 1056 2640 880 2640
WIRE 912 2688 912 2480
WIRE 912 2688 880 2688
WIRE 416 2736 416 -320
WIRE 448 2736 448 -416
WIRE 496 2736 496 -304
WIRE 528 2736 528 -224
WIRE 576 2736 576 -112
WIRE 608 2736 608 -32
WIRE 656 2736 656 80
WIRE 688 2736 688 160
FLAG -144 -496 IN0
IOPIN -144 -496 In
FLAG -144 -304 IN2
IOPIN -144 -304 In
FLAG -144 -112 IN3
IOPIN -144 -112 In
FLAG -144 80 IN4
IOPIN -144 80 In
FLAG 1056 -480 OUT0
IOPIN 1056 -480 Out
FLAG 1056 -272 OUT1
IOPIN 1056 -272 Out
FLAG 1056 -64 OUT2
IOPIN 1056 -64 Out
FLAG 1056 144 OUT3
IOPIN 1056 144 Out
FLAG 1056 352 OUT4
IOPIN 1056 352 Out
FLAG 1056 560 OUT5
IOPIN 1056 560 Out
FLAG 1056 768 OUT6
IOPIN 1056 768 Out
FLAG 1056 976 OUT7
IOPIN 1056 976 Out
FLAG 1056 1184 OUT8
IOPIN 1056 1184 Out
FLAG 1056 1392 OUT9
IOPIN 1056 1392 Out
FLAG 1056 1600 OUT10
IOPIN 1056 1600 Out
FLAG 1056 2016 OUT12
IOPIN 1056 2016 Out
FLAG 1056 2224 OUT13
IOPIN 1056 2224 Out
FLAG 1056 2432 OUT14
IOPIN 1056 2432 Out
FLAG 1056 2640 OUT15
IOPIN 1056 2640 Out
FLAG 1056 1808 OUT11
IOPIN 1056 1808 Out
FLAG 256 -464 VSS
IOPIN 256 -464 BiDir
FLAG 256 -528 VDD
IOPIN 256 -528 BiDir
FLAG 1056 -528 VDD
IOPIN 1056 -528 BiDir
FLAG 1056 -432 VSS
IOPIN 1056 -432 BiDir
SYMBOL 4AND 816 -480 R0
SYMATTR InstName X1
SYMBOL 4AND 816 -272 R0
SYMATTR InstName X2
SYMBOL 4AND 816 -64 R0
SYMATTR InstName X3
SYMBOL 4AND 816 144 R0
SYMATTR InstName X4
SYMBOL 4AND 816 352 R0
SYMATTR InstName X5
SYMBOL 4AND 816 560 R0
SYMATTR InstName X6
SYMBOL 4AND 816 768 R0
SYMATTR InstName X7
SYMBOL 4AND 816 976 R0
SYMATTR InstName X8
SYMBOL 4AND 816 1184 R0
SYMATTR InstName X9
SYMBOL 4AND 816 1392 R0
SYMATTR InstName X10
SYMBOL 4AND 816 1600 R0
SYMATTR InstName X11
SYMBOL 4AND 816 1808 R0
SYMATTR InstName X12
SYMBOL 4AND 816 2016 R0
SYMATTR InstName X13
SYMBOL 4AND 816 2224 R0
SYMATTR InstName X14
SYMBOL 4AND 816 2432 R0
SYMATTR InstName X15
SYMBOL 4AND 816 2640 R0
SYMATTR InstName X16
SYMBOL 1INV 96 -496 R0
SYMATTR InstName X17
SYMBOL 1INV 96 -304 R0
SYMATTR InstName X18
SYMBOL 1INV 96 -112 R0
SYMATTR InstName X19
SYMBOL 1INV 96 80 R0
SYMATTR InstName X20
