Version 4
SHEET 1 1080 1876
WIRE 544 0 512 0
WIRE 352 32 272 32
WIRE 544 32 512 32
WIRE 352 64 320 64
WIRE 544 64 512 64
WIRE 544 96 512 96
WIRE 176 112 144 112
WIRE -16 144 -128 144
WIRE 272 144 272 32
WIRE 272 144 144 144
WIRE -16 176 -64 176
WIRE 272 176 144 176
WIRE 176 208 144 208
WIRE 544 224 512 224
WIRE 272 256 272 176
WIRE 352 256 272 256
WIRE 544 256 512 256
WIRE 320 288 320 64
WIRE 352 288 320 288
WIRE 544 288 512 288
WIRE 544 320 512 320
WIRE -224 336 -256 336
WIRE -416 368 -528 368
WIRE -128 368 -128 144
WIRE -128 368 -256 368
WIRE -416 400 -448 400
WIRE -128 400 -256 400
WIRE -224 432 -256 432
WIRE 544 448 512 448
WIRE 352 480 272 480
WIRE 544 480 512 480
WIRE 320 512 320 288
WIRE 352 512 320 512
WIRE 544 512 512 512
WIRE 544 544 512 544
WIRE 176 560 144 560
WIRE -128 592 -128 400
WIRE -16 592 -128 592
WIRE 272 592 272 480
WIRE 272 592 144 592
WIRE -64 624 -64 176
WIRE -16 624 -64 624
WIRE 272 624 144 624
WIRE 176 656 144 656
WIRE 544 672 512 672
WIRE 272 704 272 624
WIRE 352 704 272 704
WIRE 544 704 512 704
WIRE 320 736 320 512
WIRE 352 736 320 736
WIRE 544 736 512 736
WIRE 544 768 512 768
WIRE -640 784 -672 784
WIRE -832 816 -896 816
WIRE -528 816 -528 368
WIRE -528 816 -672 816
WIRE -832 848 -896 848
WIRE -528 848 -672 848
WIRE -640 880 -672 880
WIRE 544 896 512 896
WIRE 352 928 272 928
WIRE 544 928 512 928
WIRE 320 960 320 736
WIRE 352 960 320 960
WIRE 544 960 512 960
WIRE 544 992 512 992
WIRE 176 1008 144 1008
WIRE -16 1040 -128 1040
WIRE 272 1040 272 928
WIRE 272 1040 144 1040
WIRE -64 1072 -64 624
WIRE -16 1072 -64 1072
WIRE 272 1072 144 1072
WIRE 176 1104 144 1104
WIRE 544 1120 512 1120
WIRE 272 1152 272 1072
WIRE 352 1152 272 1152
WIRE 544 1152 512 1152
WIRE 320 1184 320 960
WIRE 352 1184 320 1184
WIRE 544 1184 512 1184
WIRE 544 1216 512 1216
WIRE -224 1232 -256 1232
WIRE -528 1264 -528 848
WIRE -416 1264 -528 1264
WIRE -128 1264 -128 1040
WIRE -128 1264 -256 1264
WIRE -448 1296 -448 400
WIRE -448 1296 -896 1296
WIRE -416 1296 -448 1296
WIRE -128 1296 -256 1296
WIRE -224 1328 -256 1328
WIRE 544 1344 512 1344
WIRE 352 1376 272 1376
WIRE 544 1376 512 1376
WIRE 320 1408 320 1184
WIRE 352 1408 320 1408
WIRE 544 1408 512 1408
WIRE 544 1440 512 1440
WIRE 176 1456 144 1456
WIRE -128 1488 -128 1296
WIRE -16 1488 -128 1488
WIRE 272 1488 272 1376
WIRE 272 1488 144 1488
WIRE -64 1520 -64 1072
WIRE -64 1520 -896 1520
WIRE -16 1520 -64 1520
WIRE 272 1520 144 1520
WIRE 176 1552 144 1552
WIRE 544 1568 512 1568
WIRE 272 1600 272 1520
WIRE 352 1600 272 1600
WIRE 544 1600 512 1600
WIRE 320 1632 320 1408
WIRE 320 1632 -896 1632
WIRE 352 1632 320 1632
WIRE 544 1632 512 1632
WIRE 544 1664 512 1664
FLAG 176 112 VDD
IOPIN 176 112 BiDir
FLAG 176 208 VSS
IOPIN 176 208 BiDir
FLAG 544 0 VDD
IOPIN 544 0 BiDir
FLAG 544 96 VSS
IOPIN 544 96 BiDir
FLAG 544 224 VDD
IOPIN 544 224 BiDir
FLAG 544 320 VSS
IOPIN 544 320 BiDir
FLAG 176 560 VDD
IOPIN 176 560 BiDir
FLAG 176 656 VSS
IOPIN 176 656 BiDir
FLAG 544 448 VDD
IOPIN 544 448 BiDir
FLAG 544 544 VSS
IOPIN 544 544 BiDir
FLAG 544 672 VDD
IOPIN 544 672 BiDir
FLAG 544 768 VSS
IOPIN 544 768 BiDir
FLAG 176 1008 VDD
IOPIN 176 1008 BiDir
FLAG 176 1104 VSS
IOPIN 176 1104 BiDir
FLAG 544 896 VDD
IOPIN 544 896 BiDir
FLAG 544 992 VSS
IOPIN 544 992 BiDir
FLAG 544 1120 VDD
IOPIN 544 1120 BiDir
FLAG 544 1216 VSS
IOPIN 544 1216 BiDir
FLAG 176 1456 VDD
IOPIN 176 1456 BiDir
FLAG 176 1552 VSS
IOPIN 176 1552 BiDir
FLAG 544 1344 VDD
IOPIN 544 1344 BiDir
FLAG 544 1440 VSS
IOPIN 544 1440 BiDir
FLAG 544 1568 VDD
IOPIN 544 1568 BiDir
FLAG 544 1664 VSS
IOPIN 544 1664 BiDir
FLAG 544 32 OUT0
IOPIN 544 32 Out
FLAG 544 928 OUT8
IOPIN 544 928 Out
FLAG 544 64 OUT1
IOPIN 544 64 Out
FLAG 544 256 OUT2
IOPIN 544 256 Out
FLAG 544 288 OUT3
IOPIN 544 288 Out
FLAG 544 480 OUT4
IOPIN 544 480 Out
FLAG 544 512 OUT5
IOPIN 544 512 Out
FLAG 544 704 OUT6
IOPIN 544 704 Out
FLAG 544 736 OUT7
IOPIN 544 736 Out
FLAG 544 960 OUT9
IOPIN 544 960 Out
FLAG 544 1152 OUT10
IOPIN 544 1152 Out
FLAG 544 1184 OUT11
IOPIN 544 1184 Out
FLAG 544 1376 OUT12
IOPIN 544 1376 Out
FLAG 544 1408 OUT13
IOPIN 544 1408 Out
FLAG 544 1600 OUT14
IOPIN 544 1600 Out
FLAG 544 1632 OUT15
IOPIN 544 1632 Out
FLAG -224 336 VDD
IOPIN -224 336 BiDir
FLAG -224 432 VSS
IOPIN -224 432 BiDir
FLAG -224 1232 VDD
IOPIN -224 1232 BiDir
FLAG -224 1328 VSS
IOPIN -224 1328 BiDir
FLAG -640 784 VDD
IOPIN -640 784 BiDir
FLAG -640 880 VSS
IOPIN -640 880 BiDir
FLAG -896 816 EN
IOPIN -896 816 In
FLAG -896 848 B3
IOPIN -896 848 In
FLAG -896 1296 B2
IOPIN -896 1296 In
FLAG -896 1520 B1
IOPIN -896 1520 In
FLAG -896 1632 B0
IOPIN -896 1632 In
SYMBOL 2WAY_DMUX 64 160 R0
SYMATTR InstName X1
SYMBOL 2WAY_DMUX 432 48 R0
SYMATTR InstName X2
SYMBOL 2WAY_DMUX 432 272 R0
SYMATTR InstName X3
SYMBOL 2WAY_DMUX 64 608 R0
SYMATTR InstName X4
SYMBOL 2WAY_DMUX 432 496 R0
SYMATTR InstName X5
SYMBOL 2WAY_DMUX 432 720 R0
SYMATTR InstName X6
SYMBOL 2WAY_DMUX 64 1056 R0
SYMATTR InstName X7
SYMBOL 2WAY_DMUX 432 944 R0
SYMATTR InstName X8
SYMBOL 2WAY_DMUX 432 1168 R0
SYMATTR InstName X9
SYMBOL 2WAY_DMUX 64 1504 R0
SYMATTR InstName X10
SYMBOL 2WAY_DMUX 432 1392 R0
SYMATTR InstName X11
SYMBOL 2WAY_DMUX 432 1616 R0
SYMATTR InstName X12
SYMBOL 2WAY_DMUX -336 384 R0
SYMATTR InstName X13
SYMBOL 2WAY_DMUX -336 1280 R0
SYMATTR InstName X14
SYMBOL 2WAY_DMUX -752 832 R0
SYMATTR InstName X15
