Version 4
SHEET 1 880 680
WIRE 16 -320 -592 -320
WIRE -592 -224 -592 -320
WIRE -592 -224 -640 -224
WIRE -288 -224 -432 -224
WIRE 48 -224 -288 -224
WIRE 80 -144 -592 -144
WIRE -592 -48 -592 -144
WIRE -592 -48 -640 -48
WIRE -288 -48 -432 -48
WIRE 112 -48 -288 -48
WIRE 48 -16 48 -224
WIRE 224 -16 48 -16
WIRE 432 -16 352 -16
WIRE 480 -16 432 -16
WIRE 480 16 352 16
WIRE 112 48 112 -48
WIRE 224 48 112 48
WIRE 400 48 352 48
WIRE 480 48 400 48
WIRE 16 144 16 -320
WIRE 16 144 -592 144
WIRE 224 144 16 144
WIRE 432 144 432 -16
WIRE 432 144 352 144
WIRE 48 176 48 -16
WIRE 48 176 -592 176
WIRE 480 176 352 176
WIRE 112 208 112 48
WIRE 224 208 112 208
WIRE 400 208 400 48
WIRE 400 208 352 208
WIRE 80 304 80 -144
WIRE 80 304 -592 304
WIRE 224 304 80 304
WIRE 432 304 432 144
WIRE 432 304 352 304
WIRE 112 336 112 208
WIRE 112 336 -592 336
WIRE 480 336 352 336
WIRE 48 368 48 176
WIRE 224 368 48 368
WIRE 400 368 400 208
WIRE 400 368 352 368
WIRE 16 464 16 144
WIRE 224 464 16 464
WIRE 432 464 432 304
WIRE 432 464 352 464
WIRE 480 496 352 496
WIRE 80 528 80 304
WIRE 224 528 80 528
WIRE 400 528 400 368
WIRE 400 528 352 528
WIRE 16 560 16 464
WIRE 48 560 48 368
WIRE 80 560 80 528
WIRE 112 560 112 336
FLAG -640 -224 IN0
IOPIN -640 -224 In
FLAG -640 -48 IN1
IOPIN -640 -48 In
FLAG -288 -224 !IN0
FLAG -288 -48 !IN1
FLAG 480 -16 VDD
IOPIN 480 -16 BiDir
FLAG 480 48 VSS
IOPIN 480 48 BiDir
FLAG 480 16 OUT0
IOPIN 480 16 Out
FLAG 480 176 OUT1
IOPIN 480 176 Out
FLAG 480 336 OUT2
IOPIN 480 336 Out
FLAG 480 496 OUT3
IOPIN 480 496 Out
SYMBOL 2AND 288 16 R0
SYMATTR InstName X3
SYMBOL 2AND 288 176 R0
SYMATTR InstName X4
SYMBOL 2AND 288 336 R0
SYMATTR InstName X5
SYMBOL 2AND 288 496 R0
SYMATTR InstName X6
