Version 4
SHEET 1 880 680
WIRE 768 128 736 128
WIRE 352 144 304 144
WIRE -32 176 -272 176
WIRE 80 176 -32 176
WIRE 448 176 304 176
WIRE 736 192 736 128
WIRE -32 208 -144 208
WIRE 80 208 -32 208
WIRE 336 208 304 208
WIRE 448 208 448 176
WIRE -272 224 -272 176
WIRE -144 224 -144 208
WIRE 336 256 336 208
WIRE 448 304 448 288
WIRE 736 304 736 272
WIRE -272 336 -272 304
WIRE -144 336 -144 304
FLAG 336 256 0
FLAG 352 144 VDD
IOPIN 352 144 BiDir
FLAG 448 304 0
FLAG -144 336 0
FLAG -272 336 0
FLAG 736 304 0
FLAG 768 128 VDD
IOPIN 768 128 BiDir
FLAG -32 176 AIN
FLAG 448 176 AOUT
FLAG -32 208 ON/OFF
SYMBOL ANALOG_SWITCH 192 176 R0
WINDOW 39 -4 89 Bottom 2
SYMATTR InstName X1
SYMATTR SpiceLine L=110nM W=180nM
SYMBOL res 432 192 R0
SYMATTR InstName R1
SYMATTR Value 100K
SYMBOL voltage -272 208 M0
WINDOW 123 0 0 Left 2
WINDOW 39 0 0 Left 2
SYMATTR InstName V1
SYMATTR Value SINE(1.65 1.65 1000)
SYMBOL voltage -144 208 R0
WINDOW 123 0 0 Left 2
WINDOW 39 0 0 Left 2
SYMATTR InstName V2
SYMATTR Value PULSE(0 3.3 0 .0000001 .0000001 .000010 .00002)
SYMBOL voltage 736 176 R0
WINDOW 123 0 0 Left 2
WINDOW 39 24 124 Left 2
SYMATTR SpiceLine Rser=0.1
SYMATTR InstName V3
SYMATTR Value 3.3
TEXT -512 360 Left 2 !.tran .001
