Version 4
SHEET 1 2296 1460
WIRE 0 -128 -400 -128
WIRE 64 -128 0 -128
WIRE 256 -128 208 -128
WIRE 0 -96 -304 -96
WIRE 64 -96 0 -96
WIRE 256 -96 208 -96
WIRE 0 -64 -208 -64
WIRE 64 -64 0 -64
WIRE 256 -64 208 -64
WIRE 0 -32 -112 -32
WIRE 64 -32 0 -32
WIRE 256 -32 208 -32
WIRE 64 0 48 0
WIRE 256 0 208 0
WIRE 256 32 208 32
WIRE 256 64 208 64
WIRE 256 96 208 96
WIRE 256 128 208 128
WIRE 256 160 208 160
WIRE -544 176 -576 176
WIRE 256 192 208 192
WIRE 256 224 208 224
WIRE -576 240 -576 176
WIRE 256 256 208 256
WIRE 256 288 208 288
WIRE 256 320 208 320
WIRE -400 352 -400 -128
WIRE -304 352 -304 -96
WIRE -208 352 -208 -64
WIRE -112 352 -112 -32
WIRE 256 352 208 352
WIRE 256 384 208 384
WIRE 256 416 208 416
WIRE -576 448 -576 320
WIRE -400 448 -400 432
WIRE -304 448 -304 432
WIRE -208 448 -208 432
WIRE -112 448 -112 432
WIRE 256 448 256 416
FLAG 256 448 0
FLAG 256 -128 VDD
IOPIN 256 -128 BiDir
FLAG -576 448 0
FLAG -544 176 VDD
IOPIN -544 176 BiDir
FLAG 48 0 VDD
IOPIN 48 0 BiDir
FLAG -400 448 0
FLAG -304 448 0
FLAG -208 448 0
FLAG -112 448 0
FLAG 256 384 DAC0
IOPIN 256 384 Out
FLAG 256 352 DAC1
IOPIN 256 352 Out
FLAG 256 320 DAC2
IOPIN 256 320 Out
FLAG 256 288 DAC3
IOPIN 256 288 Out
FLAG 256 256 DAC4
IOPIN 256 256 Out
FLAG 256 224 DAC5
IOPIN 256 224 Out
FLAG 256 192 DAC6
IOPIN 256 192 Out
FLAG 256 160 DAC7
IOPIN 256 160 Out
FLAG 256 128 DAC8
IOPIN 256 128 Out
FLAG 256 96 DAC9
IOPIN 256 96 Out
FLAG 256 64 DAC10
IOPIN 256 64 Out
FLAG 256 32 DAC11
IOPIN 256 32 Out
FLAG 256 0 DAC12
IOPIN 256 0 Out
FLAG 256 -32 DAC13
IOPIN 256 -32 Out
FLAG 256 -64 DAC14
IOPIN 256 -64 Out
FLAG 256 -96 DAC15
IOPIN 256 -96 Out
FLAG 0 -128 BIN0
FLAG 0 -96 BIN1
FLAG 0 -64 BIN2
FLAG 0 -32 BIN3
SYMBOL voltage -576 224 R0
WINDOW 123 0 0 Left 2
WINDOW 39 54 61 Left 2
WINDOW 0 51 20 Left 2
WINDOW 3 50 42 Left 2
SYMATTR SpiceLine Rser=0.1
SYMATTR InstName V3
SYMATTR Value 3.3
SYMBOL 4BTO16T_MUX 128 144 R0
SYMATTR InstName X3
SYMBOL voltage -400 336 R0
WINDOW 3 -15 266 Left 2
WINDOW 123 0 0 Left 2
WINDOW 39 0 0 Left 2
SYMATTR Value PWL file=D:\ASIC\DATA\COUNTER_D0.txt
SYMATTR InstName V1
SYMBOL voltage -304 336 R0
WINDOW 3 -113 287 Left 2
WINDOW 123 0 0 Left 2
WINDOW 39 0 0 Left 2
SYMATTR Value PWL file=D:\ASIC\DATA\COUNTER_D1.txt
SYMATTR InstName V2
SYMBOL voltage -208 336 R0
WINDOW 3 -208 309 Left 2
WINDOW 123 0 0 Left 2
WINDOW 39 0 0 Left 2
SYMATTR Value PWL file=D:\ASIC\DATA\COUNTER_D2.txt
SYMATTR InstName V4
SYMBOL voltage -112 336 R0
WINDOW 3 -303 333 Left 2
WINDOW 123 0 0 Left 2
WINDOW 39 0 0 Left 2
SYMATTR Value PWL file=D:\ASIC\DATA\COUNTER_D3.txt
SYMATTR InstName V5
TEXT 72 496 Left 2 !.tran 60m
