Version 4
SHEET 1 1004 680
WIRE -160 -96 -240 -96
WIRE -32 -96 -80 -96
WIRE -16 -96 -32 -96
WIRE -464 64 -544 64
WIRE -368 64 -464 64
WIRE -240 64 -240 -96
WIRE -240 64 -288 64
WIRE -192 64 -240 64
WIRE 112 64 -64 64
WIRE -16 96 -16 -96
WIRE -16 96 -64 96
WIRE -192 128 -240 128
WIRE -16 128 -64 128
WIRE -544 208 -544 64
WIRE -240 208 -240 128
WIRE 112 208 112 64
WIRE -544 336 -544 288
WIRE -240 336 -240 288
WIRE -16 336 -16 128
WIRE 112 336 112 288
FLAG 112 336 0
FLAG -16 336 0
FLAG -240 336 0
FLAG -544 336 0
FLAG -464 64 IN
FLAG -32 -96 OUT
SYMBOL res -64 -112 R90
WINDOW 0 0 56 VBottom 2
WINDOW 3 32 56 VTop 2
SYMATTR InstName R1
SYMATTR Value 300K
SYMBOL res -272 48 R90
WINDOW 0 0 56 VBottom 2
WINDOW 3 32 56 VTop 2
SYMATTR InstName R2
SYMATTR Value 30K
SYMBOL oamp0 -128 96 R0
SYMATTR InstName X1
SYMBOL voltage 112 192 R0
WINDOW 123 0 0 Left 2
WINDOW 39 24 124 Left 2
SYMATTR SpiceLine Rser=0.1
SYMATTR InstName V1
SYMATTR Value 3.3
SYMBOL voltage -240 192 R0
WINDOW 123 0 0 Left 2
WINDOW 39 24 124 Left 2
SYMATTR SpiceLine Rser=0.1
SYMATTR InstName V4
SYMATTR Value 1.65
SYMBOL voltage -544 192 R0
WINDOW 123 0 0 Left 2
WINDOW 39 24 124 Left 2
SYMATTR SpiceLine Rser=0.1
SYMATTR InstName V5
SYMATTR Value SINE(1.65 .1 200)
TEXT -576 360 Left 2 !.tran 10m
