Version 4
SHEET 1 1132 680
WIRE -64 -16 -144 -16
WIRE 368 -16 -64 -16
WIRE 448 -16 368 -16
WIRE 864 -16 448 -16
WIRE 960 -16 864 -16
WIRE 1024 -16 960 -16
WIRE 480 32 288 32
WIRE -64 48 -64 -16
WIRE 368 48 368 -16
WIRE 864 48 864 -16
WIRE 32 64 -16 64
WIRE 288 64 288 32
WIRE 288 64 32 64
WIRE 320 64 288 64
WIRE 480 64 480 32
WIRE 816 64 480 64
WIRE -144 96 -144 -16
WIRE -64 96 -144 96
WIRE 448 96 448 -16
WIRE 448 96 368 96
WIRE 960 96 960 -16
WIRE 960 96 864 96
WIRE -64 176 -64 144
WIRE 32 176 32 64
WIRE 32 176 -64 176
WIRE 288 192 192 192
WIRE 368 192 368 144
WIRE 368 192 288 192
WIRE 448 192 368 192
WIRE 544 192 448 192
WIRE 192 240 192 192
WIRE 544 240 544 192
WIRE 144 256 96 256
WIRE 544 256 544 240
WIRE 640 256 592 256
WIRE 864 256 864 144
WIRE 960 256 864 256
WIRE 288 288 288 192
WIRE 288 288 192 288
WIRE 448 288 448 192
WIRE 544 288 448 288
WIRE 192 368 192 336
WIRE 288 368 192 368
WIRE 544 368 544 336
WIRE 768 368 544 368
WIRE -64 384 -64 176
WIRE 192 400 192 368
WIRE 544 400 544 368
WIRE 864 400 864 256
WIRE 192 448 112 448
WIRE 640 448 544 448
WIRE 960 448 864 448
WIRE 288 480 288 368
WIRE 288 480 240 480
WIRE 496 480 288 480
WIRE 768 480 768 368
WIRE 816 480 768 480
WIRE -64 560 -64 464
WIRE 112 560 112 448
WIRE 112 560 -64 560
WIRE 192 560 192 496
WIRE 192 560 112 560
WIRE 544 560 544 496
WIRE 544 560 192 560
WIRE 640 560 640 448
WIRE 640 560 544 560
WIRE 864 560 864 496
WIRE 864 560 640 560
WIRE 960 560 960 448
WIRE 960 560 864 560
WIRE 1024 560 960 560
FLAG 96 256 -IN
IOPIN 96 256 In
FLAG 640 256 +IN
IOPIN 640 256 In
FLAG 960 256 OUT
IOPIN 960 256 Out
FLAG 1024 -16 VDD
IOPIN 1024 -16 BiDir
FLAG 1024 560 VSS
IOPIN 1024 560 BiDir
SYMBOL pmos4 -16 144 R180
SYMATTR InstName M1
SYMATTR Value2 l=8u w=1u
SYMBOL pmos4 320 144 M180
SYMATTR InstName M2
SYMATTR Value2 l=8u w=6u
SYMBOL pmos4 816 144 M180
SYMATTR InstName M3
SYMATTR Value2 l=10u w=32u
SYMBOL pmos4 144 336 M180
SYMATTR InstName M4
SYMATTR Value2 l=1u w=8u
SYMBOL pmos4 592 336 R180
SYMATTR InstName M5
SYMATTR Value2 l=1u w=8u
SYMBOL nmos4 240 400 M0
SYMATTR InstName M6
SYMATTR Value2 l=10u w=8u
SYMBOL nmos4 496 400 R0
SYMATTR InstName M7
SYMATTR Value2 l=10u w=8u
SYMBOL nmos4 816 400 R0
SYMATTR InstName M8
SYMATTR Value2 l=8u w=12u
SYMBOL current -64 384 R0
WINDOW 123 0 0 Left 2
WINDOW 39 0 0 Left 2
SYMATTR InstName I1
SYMATTR Value 5µ
